
#######################################################################
#
#                 Cambridge Crystallographic Data Centre
#                                CCDC 
#
#######################################################################
#
# If this CIF has been generated from an entry in the Cambridge 
# Structural Database, then it will include bibliographic, chemical, 
# crystal, experimental, refinement or atomic coordinate data resulting 
# from the CCDC's data processing and validation procedures.
#
#######################################################################

data_ANTCEN
_chemical_formula_moiety         'C14 H10'
_chemical_name_systematic        Anthracene
_symmetry_cell_setting           monoclinic
_symmetry_space_group_name_H-M   'P 21/a'
_symmetry_Int_Tables_number      14
_space_group_name_Hall           '-P 2yab'
loop_
_symmetry_equiv_pos_site_id
_symmetry_equiv_pos_as_xyz
1 x,y,z
2 1/2-x,1/2+y,-z
3 -x,-y,-z
4 1/2+x,1/2-y,z
_cell_length_a                   8.562
_cell_length_b                   6.038
_cell_length_c                   11.184
_cell_angle_alpha                90
_cell_angle_beta                 124.70
_cell_angle_gamma                90
_cell_volume                     475.35
_cell_formula_units_Z            2
loop_
_atom_site_label
_atom_site_type_symbol
_atom_site_fract_x
_atom_site_fract_y
_atom_site_fract_z
C1 C 0.08728 0.02712 0.36562
C2 C 0.11875 0.15775 0.28072
C3 C 0.05864 0.08030 0.13816
C4 C 0.08786 0.20936 0.04738
C5 C -0.03038 -0.13067 0.08990
C6 C -0.06055 -0.25943 0.18346
C7 C -0.00336 -0.18060 0.31659
H1 H 0.13078 0.10834 0.47185
H2 H 0.19592 0.32463 0.31666
H3 H 0.15459 0.37636 0.08519
H4 H -0.12072 -0.43044 0.14316
H5 H -0.02393 -0.32391 0.37912
C5B C 0.03038 0.13067 -0.08990
C4B C -0.08786 -0.20936 -0.04738
C3B C -0.05864 -0.08030 -0.13816
C6B C 0.06055 0.25943 -0.18346
H3B H -0.15459 -0.37636 -0.08519
C2B C -0.11875 -0.15775 -0.28072
C7B C 0.00336 0.18060 -0.31659
H4B H 0.12072 0.43044 -0.14316
C1B C -0.08728 -0.02712 -0.36562
H2B H -0.19592 -0.32463 -0.31666
H5B H 0.02393 0.32391 -0.37912
H1B H -0.13078 -0.10834 -0.47185
loop_
_geom_bond_atom_site_label_1
_geom_bond_atom_site_label_2
_geom_bond_site_symmetry_1
_geom_bond_site_symmetry_2
C1 C2 1_555 1_555
C2 C3 1_555 1_555
C3 C4 1_555 1_555
C4 H3 1_555 1_555
C5 C3 1_555 1_555
C6 C5 1_555 1_555
C7 C1 1_555 1_555
H1 C1 1_555 1_555
H2 C2 1_555 1_555
H4 C6 1_555 1_555
H5 C7 1_555 1_555
C5B C4 1_555 1_555
C4B C5 1_555 1_555
C3B C5B 1_555 1_555
C6B C5B 1_555 1_555
H3B C4B 1_555 1_555
C2B C3B 1_555 1_555
C7B C6B 1_555 1_555
H4B C6B 1_555 1_555
C1B C2B 1_555 1_555
H2B C2B 1_555 1_555
H5B C7B 1_555 1_555
H1B C1B 1_555 1_555
C6 C7 1_555 1_555
C4B C3B 1_555 1_555
C7B C1B 1_555 1_555

#END
