
#######################################################################
#
#                 Cambridge Crystallographic Data Centre
#                                CCDC 
#
#######################################################################
#
# If this CIF has been generated from an entry in the Cambridge 
# Structural Database, then it will include bibliographic, chemical, 
# crystal, experimental, refinement or atomic coordinate data resulting 
# from the CCDC's data processing and validation procedures.
#
#######################################################################

data_SIMLIK
_chemical_formula_moiety         'C22 H30 N4'
_chemical_name_systematic        
N,N'-bis(4-(Dimethylamino)benzylidene)butane-1,4-diamine
_symmetry_cell_setting           monoclinic
_symmetry_space_group_name_H-M   'P 21/c'
_symmetry_Int_Tables_number      14
_space_group_name_Hall           '-P 2ybc'
loop_
_symmetry_equiv_pos_site_id
_symmetry_equiv_pos_as_xyz
1 x,y,z
2 -x,1/2+y,1/2-z
3 -x,-y,-z
4 x,1/2-y,1/2+z
_cell_length_a                   5.22540(10)
_cell_length_b                   9.5742(3)
_cell_length_c                   19.4882(5)
_cell_angle_alpha                90
_cell_angle_beta                 95.5120(10)
_cell_angle_gamma                90
_cell_volume                     970.467
_exptl_crystal_colour            colorless
_exptl_crystal_description       block
_cell_formula_units_Z            2
_exptl_crystal_recrystallization_method ethanol
loop_
_atom_site_label
_atom_site_type_symbol
_atom_site_fract_x
_atom_site_fract_y
_atom_site_fract_z
N1 N 0.53637(13) 0.48735(7) 0.13556(3)
N2 N -0.12267(14) 0.52022(8) 0.40171(4)
C1 C 0.62461(15) 0.46510(9) 0.01434(4)
C2 C 0.72103(15) 0.51889(9) 0.08599(4)
C3 C 0.51689(14) 0.57613(8) 0.18350(4)
C4 C 0.34554(14) 0.56002(7) 0.23809(4)
C5 C 0.17727(13) 0.44685(7) 0.24139(4)
C6 C 0.02178(14) 0.43354(8) 0.29458(4)
C7 C 0.02565(14) 0.53483(8) 0.34753(4)
C8 C 0.19010(14) 0.65045(8) 0.34311(4)
C9 C 0.34678(14) 0.66113(8) 0.28991(4)
C10 C -0.30355(16) 0.40527(10) 0.40148(5)
C11 C -0.16521(18) 0.64055(11) 0.44456(5)
H1 H 0.760(2) 0.4843(13) -0.0193(7)
H2 H 0.589(2) 0.3590(15) 0.0147(7)
H3 H 0.887(2) 0.4716(13) 0.1001(7)
H4 H 0.758(2) 0.6201(14) 0.0852(7)
H5 H 0.620(3) 0.6594(15) 0.1863(7)
H6 H 0.159(2) 0.3760(15) 0.2047(7)
H7 H -0.095(2) 0.3549(14) 0.2944(7)
H8 H 0.204(2) 0.7260(14) 0.3775(7)
H9 H 0.455(2) 0.7385(14) 0.2887(7)
H10 H -0.214(2) 0.3155(15) 0.3995(6)
H11 H -0.440(3) 0.4081(15) 0.3634(7)
H12 H -0.380(3) 0.4063(17) 0.4451(8)
H13 H -0.005(3) 0.6769(15) 0.4684(7)
H14 H -0.252(3) 0.7173(16) 0.4176(8)
H15 H -0.269(3) 0.6146(19) 0.4806(9)
N1B N 0.46363(13) 0.51265(7) -0.13556(3)
N2B N 1.12267(14) 0.47978(8) -0.40171(4)
C1B C 0.37539(15) 0.53490(9) -0.01434(4)
C2B C 0.27897(15) 0.48111(9) -0.08599(4)
C3B C 0.48311(14) 0.42387(8) -0.18350(4)
C4B C 0.65446(14) 0.43998(7) -0.23809(4)
C5B C 0.82273(13) 0.55315(7) -0.24139(4)
C6B C 0.97822(14) 0.56646(8) -0.29458(4)
C7B C 0.97435(14) 0.46517(8) -0.34753(4)
C8B C 0.80990(14) 0.34955(8) -0.34311(4)
C9B C 0.65322(14) 0.33887(8) -0.28991(4)
C10B C 1.30355(16) 0.59473(10) -0.40148(5)
C11B C 1.16521(18) 0.35945(11) -0.44456(5)
H1B H 0.240(2) 0.5157(13) 0.0193(7)
H2B H 0.411(2) 0.6410(15) -0.0147(7)
H3B H 0.113(2) 0.5284(13) -0.1001(7)
H4B H 0.242(2) 0.3799(14) -0.0852(7)
H5B H 0.380(3) 0.3406(15) -0.1863(7)
H6B H 0.841(2) 0.6240(15) -0.2047(7)
H7B H 1.095(2) 0.6451(14) -0.2944(7)
H8B H 0.796(2) 0.2740(14) -0.3775(7)
H9B H 0.545(2) 0.2615(14) -0.2887(7)
H10B H 1.214(2) 0.6845(15) -0.3995(6)
H11B H 1.440(3) 0.5919(15) -0.3634(7)
H12B H 1.380(3) 0.5937(17) -0.4451(8)
H13B H 1.005(3) 0.3231(15) -0.4684(7)
H14B H 1.252(3) 0.2827(16) -0.4176(8)
H15B H 1.269(3) 0.3854(19) -0.4806(9)
loop_
_geom_bond_atom_site_label_1
_geom_bond_atom_site_label_2
_geom_bond_site_symmetry_1
_geom_bond_site_symmetry_2
N1 C2 1_555 1_555
N2 C7 1_555 1_555
C1 C2 1_555 1_555
C2 H3 1_555 1_555
C3 N1 1_555 1_555
C4 C3 1_555 1_555
C5 C4 1_555 1_555
C6 C5 1_555 1_555
C7 C6 1_555 1_555
C8 C7 1_555 1_555
C9 C4 1_555 1_555
C10 N2 1_555 1_555
C11 N2 1_555 1_555
H1 C1 1_555 1_555
H2 C1 1_555 1_555
H4 C2 1_555 1_555
H5 C3 1_555 1_555
H6 C5 1_555 1_555
H7 C6 1_555 1_555
H8 C8 1_555 1_555
H9 C9 1_555 1_555
H10 C10 1_555 1_555
H11 C10 1_555 1_555
H12 C10 1_555 1_555
H13 C11 1_555 1_555
H14 C11 1_555 1_555
H15 C11 1_555 1_555
N1B C2B 1_555 1_555
N2B C7B 1_555 1_555
C1B C1 1_555 1_555
C2B C1B 1_555 1_555
C3B N1B 1_555 1_555
C4B C3B 1_555 1_555
C5B C4B 1_555 1_555
C6B C5B 1_555 1_555
C7B C6B 1_555 1_555
C8B C7B 1_555 1_555
C9B C4B 1_555 1_555
C10B N2B 1_555 1_555
C11B N2B 1_555 1_555
H1B C1B 1_555 1_555
H2B C1B 1_555 1_555
H3B C2B 1_555 1_555
H4B C2B 1_555 1_555
H5B C3B 1_555 1_555
H6B C5B 1_555 1_555
H7B C6B 1_555 1_555
H8B C8B 1_555 1_555
H9B C9B 1_555 1_555
H10B C10B 1_555 1_555
H11B C10B 1_555 1_555
H12B C10B 1_555 1_555
H13B C11B 1_555 1_555
H14B C11B 1_555 1_555
H15B C11B 1_555 1_555
C8 C9 1_555 1_555
C8B C9B 1_555 1_555

#END
